 ****** HSPICE -- E-2010.12 32-BIT (Nov 20 2010) winnt ******                   
  Copyright (C) 2010 Synopsys, Inc. All Rights Reserved.                        
  Unpublished-rights reserved under US copyright laws.
  This program is protected by law and is subject to the
  terms and conditions of the license agreement from Synopsys.
  Use of this program is your acceptance to be bound by the
  license agreement. HSPICE is the trademark of Synopsys, Inc.
  Input File: d:\project\hsipce\hw2-analog\hspice.sp                            
  Command line options: -i d:\project\hsipce\hw2-analog\hspice.sp -o d:\project\hsipce\hw2-analog\hspice.lis
  lic:  
  lic: FLEXlm: v10.8 
  lic: USER:   askev                HOSTNAME: NEKO 
  lic: HOSTID: "50ebf6939771 a0e70baeb177 a0e70baeb178 a2e70baeb177" PID:      3
 9
  lic: Using FLEXlm license file: 
  lic: 27000@localhost 
  lic: Checkout 1 hspice 
  lic: License/Maintenance for hspice will expire on 31-dec-2028/2008.120 
  lic: 1(in_use)/999(total) FLOATING license(s) on SERVER localhost 
  lic:   
 Init: read install configuration file: C:\synopsys\Hspice_E-2010.12\meta.cfg
1****** HSPICE -- E-2010.12 32-BIT (Nov 20 2010) winnt ******                   
 ******  
 ***hw2-analog***

  ******  circuit name directory
 circuit number to circuit name directory
   number circuitname                     definition         multiplier
        0 main circuit
        1 x1.                             opa                1.00 
        2 x2.                             opa                1.00 
        3 x3.                             opa                1.00 
        4 x4.                             nor                1.00 
        5 x5.                             nor                1.00 

 **warning** It is recommended that you set start explicitly:
             .TRAN tstep tstop START=val


  **info** (d:\project\hsipce\hw2-analog\hspice.sp:44) DC voltage reset to initial transient source value              in source        0:vdd                 new dc=  0.0000D+00
  **warning** (d:\project\hsipce\hw2-analog\hspice.sp:45) Both nodes of element vss are connected together; Line ignored.
 ***************************************************************************
 ***        model parameters  model name:   0:p_18.1   model type:pmos   ***
 ***************************************************************************

   *** general parameters ***
    deriv=   0.           

   ***  level 49  model parameters  ***

       hspver=    2006.03               level=         49         
      version=        3.2            paramchk=          0         
       apwarn=          1                lite=          0         
       vgslim=          0             binUnit=          1         
       capMod=          2               xpart=          1         
       mobMod=          3              nqsMod=          0         
       stiMod=          0                 elm=          5         
     sfvtflag=          0                 tox=   4.2e-009 meter   
           xj=     1e-007 meter       binflag=          0         
         lmin=   1.8e-007 meter          lmax=     5e-005 meter   
         wmin=   2.5e-007 meter          wmax=     0.0001 meter   
         lref=          0 meter          wref=          0 meter   
         lint=-1.041e-008 meter          wint=-1.525e-007 meter   
        lmult=          1               wmult=          1         
           ll= 6.635e-015                 lln=          1         
           lw=-2.873e-016                 lwn=          1         
          lwl=          0                  wl=          0         
          wln=          1                  ww= 1.236e-014         
          wwn=          1                 wwl=          0         
          dwg=-1.251e-007 m/V             dwb=-1.039e-007 m/V^1/2 
           xl=    -2e-009                  xw=          0         
           a0=       1.35                 ags=     0.3818 V^-1    
           b0=-3.088e-007 meter            b1=          0 meter   
         keta=    0.01044 V^-1           voff=    -0.1073 V       
        ngate=     1e+023 cm^-3           vbx=          0 V       
          vbm=         -3 V                xt=  1.55e-007 meter   
         vth0=    -0.4555 V               nch= 6.231e+017 cm^-3   
         nsub=     6e+016 cm^-3           nlx=  2.53e-007 meter   
       gamma1=          0 V^-1/2       gamma2=          0 V^-1/2  
           k1=     0.5704 V^1/2            k2=   0.006973         
           k3=     -2.833                 k3b=      1.326 V^-1    
           w0=-1.943e-007 meter          dvt0=     0.4885         
         dvt1=    0.07578                dvt2=     0.1187 V^-1    
        dvt0w=    -0.1261 meter^-1      dvt1w=      24790 meter^-1
        dvt2w=     0.6915 V^-1           dsub=     1.9191         
         eta0=      1.071                etab=    -0.9291 V^-1    
           u0=      124.5 cm^2/V/sec         ua=  1.54e-009 m/V     
           ub= 2.646e-019 (m/V)^2          uc=   -0.09587 V^-1    
         vsat=      53400 m/sec            a1=          0 v^-1    
           a2=          1               delta=       0.01 V       
         rdsw=      792.1 ohm-um         prwg=          0 V^-1    
         prwb=          0 V^-1/2           wr=          1         
         pclm=      2.653             pdiblc1=          0         
      pdiblc2=     5e-006             pdiblcb=          0 V^-1    
       pscbe1= 4.866e+008 V/m          pscbe2=   2.8e-007 V/m     
        drout=      1.457                pvag=      1.262         
      nfactor=      1.535                cdsc=  0.0007578 f/m^2   
        cdscb=     0.0001 f/V/m^2       cdscd=-2.883e-005 f/V/m^2 
          cit=  -0.001067 f/m^2        alpha0=          0 m/V     
        beta0=         30 V               dlc=  7.01e-008 meter   
          dwc=          0 meter           clc=     1e-007 meter   
          cle=        0.6                cgso= 2.054e-010 f/m     
         cgdo= 2.054e-010 f/m            cgbo=          0 f/m     
         cgsl=          0 f/m            cgdl=          0 f/m     
       ckappa=        0.6                  cf= 1.533e-010 f/m     
         acde=          1 m/V            moin=         15 V^1/2   
         toxm=   4.2e-009 m            dtoxcv=          0 m       
          vfb (not used)                alpha1=          0 1/V     
         ijth=          0 A              noff=          1         
       voffcv=          0                 tcj=          0 1/K     
        tcjsw=          0 1/K          tcjswg=          0 1/K     
          tpb=          0 V/K           tpbsw=          0 V/K     
       tpbswg=          0 V/K             llc= -1.31e-014         
          lwc=          0                lwlc=          0         
          wlc=          0                 wwc=          0         
         wwlc=          0                tnom=     298.15 K       
          kt1=    -0.2294 V              kt1l=-8.204e-009         
          kt2=  -0.009487                 ute=    -0.4484         
          ua1= 4.571e-009 m/V             ub1=-6.026e-018 (m/V)^2 
          uc1=    -0.0985 m/V^2            at=      12030 m/s     
          prt=          0         
          using Berkeley noise model       noiMod=          1         
         noia=     1e+020                noib=      50000         
         noic=  -1.4e-012                  em=   4.2e+007         
           ef=          1                  af=          1         
           kf=          0              gdsnoi=-1.23457e-029         
          using Hspice diodes            using ACM 
          acm=         3                 hdif=  2.6e-007 meter    
         ldif=    8e-008 meter             js=    3e-006 amp/m^2  
          jsw= 4.22e-011 amp/m            xti=         3          
            n=         1                   cj=   0.00124 f/m^2    
           mj=     0.395                   pb=     0.762 V        
         cjsw= 1.74e-010 f/m             mjsw=     0.324          
          php=     0.665 V               pbsw (not used)           
       cjgate= 1.74e-010 f/m            cjswg (not used)           
        mjswg (not used)                 pbswg (not used)           
          la0=     -0.281                lags=    0.04454         
        lketa=     -0.012               lvoff= -0.0009871         
        lvth0=     0.0044                lnlx=-1.584e-008         
          lua=-8.253e-011            lpdiblc2=   0.003012         
          wa0=   -0.04807                wags=   -0.04277         
        wvoff=  -0.009816               wvth0=    -0.0148         
          wua=  2.63e-009               wvsat=     -14200         
        wrdsw=      10.07                wute=    -0.2682         
          wat=      -6405                wprt=      226.6         
          pa0=    0.08661                pags=   -0.04076         
        pvoff=-9.833e-005               pvth0=     0.0032         
          pua= 5.855e-011               pvsat=       -434         
 ***************************************************************************
 ***        model parameters  model name:   0:n_18.1   model type:nmos   ***
 ***************************************************************************

   *** general parameters ***
    deriv=   0.           

   ***  level 49  model parameters  ***

       hspver=    2006.03               level=         49         
      version=        3.2            paramchk=          0         
       apwarn=          1                lite=          0         
       vgslim=          0             binUnit=          1         
       capMod=          2               xpart=          1         
       mobMod=          1              nqsMod=          0         
       stiMod=          0                 elm=          5         
     sfvtflag=          0                 tox=   4.2e-009 meter   
           xj=   1.6e-007 meter       binflag=          0         
         lmin=   1.8e-007 meter          lmax=     5e-005 meter   
         wmin=   2.5e-007 meter          wmax=     0.0001 meter   
         lref=          0 meter          wref=          0 meter   
         lint= 1.587e-008 meter          wint= 1.022e-008 meter   
        lmult=          1               wmult=          1         
           ll=-1.062e-015                 lln=          1         
           lw= 2.996e-015                 lwn=          1         
          lwl=          0                  wl=          0         
          wln=          1                  ww= 7.262e-016         
          wwn=          1                 wwl=          0         
          dwg=-3.396e-009 m/V             dwb= 1.346e-009 m/V^1/2 
           xl= -1.05e-008                  xw=          0         
           a0=       1.93                 ags=     0.5072 V^-1    
           b0= 1.486e-006 meter            b1= 9.064e-006 meter   
         keta=    0.01752 V^-1           voff=    -0.1088 V       
        ngate=     1e+023 cm^-3           vbx=          0 V       
          vbm=         -3 V                xt=  1.55e-007 meter   
         vth0=     0.3075 V               nch=3.7446e+017 cm^-3   
         nsub=     6e+016 cm^-3           nlx= 4.279e-007 meter   
       gamma1=          0 V^-1/2       gamma2=          0 V^-1/2  
           k1=     0.4578 V^1/2            k2=   -0.02638         
           k3=     -10.88                 k3b=     0.2379 V^-1    
           w0=-8.813e-008 meter          dvt0=     0.4042         
         dvt1=     0.3237                dvt2=    -0.8602 V^-1    
        dvt0w=      0.383 meter^-1      dvt1w=     600000 meter^-1
        dvt2w=     -0.025 V^-1           dsub=   0.001592         
         eta0=   0.001004                etab=  -0.001459 V^-1    
           u0=      324.1 cm^2/V/sec         ua=-9.201e-010 m/V     
           ub= 1.907e-018 (m/V)^2          uc= 4.355e-011 V^-1    
         vsat=      72580 m/sec            a1=          0 v^-1    
           a2=          1               delta=       0.01 V       
         rdsw=      4.905 ohm-um         prwg=          0 V^-1    
         prwb=          0 V^-1/2           wr=          1         
         pclm=      1.091             pdiblc1=   0.003061         
      pdiblc2=     1e-006             pdiblcb=          0 V^-1    
       pscbe1= 4.866e+008 V/m          pscbe2=   2.8e-007 V/m     
        drout=   0.001592                pvag=    -0.2958         
      nfactor=      1.038                cdsc=   0.002275 f/m^2   
        cdscb=  0.0008241 f/V/m^2       cdscd=    -0.0005 f/V/m^2 
          cit=  -0.001511 f/m^2        alpha0=          0 m/V     
        beta0=         30 V               dlc=     4e-008 meter   
          dwc=          0 meter           clc=     1e-007 meter   
          cle=        0.6                cgso=  2.35e-010 f/m     
         cgdo=  2.35e-010 f/m            cgbo=          0 f/m     
         cgsl=          0 f/m            cgdl=          0 f/m     
       ckappa=        0.6                  cf= 1.533e-010 f/m     
         acde=          1 m/V            moin=         15 V^1/2   
         toxm=   4.2e-009 m            dtoxcv=          0 m       
          vfb (not used)                alpha1=          0 1/V     
         ijth=          0 A              noff=          1         
       voffcv=          0                 tcj=          0 1/K     
        tcjsw=          0 1/K          tcjswg=          0 1/K     
          tpb=          0 V/K           tpbsw=          0 V/K     
       tpbswg=          0 V/K             llc= -6.64e-015         
          lwc=          0                lwlc=          0         
          wlc=          0                 wwc=          0         
         wwlc=          0                tnom=     298.15 K       
          kt1=    -0.2255 V              kt1l=-4.275e-009         
          kt2=   -0.02527                 ute=     -1.186         
          ua1= 2.253e-009 m/V             ub1=-2.673e-018 (m/V)^2 
          uc1=-3.832e-011 m/V^2            at=      14490 m/s     
          prt=     -10.18         
          using Berkeley noise model       noiMod=          1         
         noia=     1e+020                noib=      50000         
         noic=  -1.4e-012                  em=   4.2e+007         
           ef=          1                  af=          1         
           kf=          0              gdsnoi=-1.23457e-029         
          using Hspice diodes            using ACM 
          acm=         3                 hdif=  2.6e-007 meter    
         ldif=    8e-008 meter             js=    1e-006 amp/m^2  
          jsw=    7e-011 amp/m            xti=         3          
            n=         1                   cj=   0.00103 f/m^2    
           mj=     0.443                   pb=     0.823 V        
         cjsw= 1.34e-010 f/m             mjsw=      0.33          
          php=      0.88 V               pbsw (not used)           
       cjgate=    5e-010 f/m            cjswg (not used)           
        mjswg (not used)                 pbswg (not used)           
          la0=    -0.4667                lags=     0.3028         
        lketa=   -0.01942               lvoff=  -0.004208         
        lvth0=     -0.001                lnlx=-2.854e-008         
        leta0=   0.001574            lpdiblc2=  -0.004752         
          wa0=   -0.04731                wags=   0.004242         
        wvoff= -0.0004078               wvth0=    0.06027         
          wu0=       0.54                 wua= -1.88e-011         
        wvsat=       5066                wute=    0.06373         
          wat=       7067                 pa0=   -0.02649         
        pvoff= -0.0003788                 pw0=   1.3e-009         
          pub=   3.8e-020         
 

 
  **warning** (d:\project\hsipce\hw2-analog\hspice.sp:19) Only 1 connection at node n4 called in element x1.rc.

 **warning** the following singular supplies were terminated to 1 meg resistor 
   supply       node1            node2
  vinn                    0:vinn             defined in subckt 0                     0:0                defined in subckt 0               
  vinp                    0:vinp             defined in subckt 0                     0:0                defined in subckt 0               
      
 **info** set option symb=1 internally to help for convergence.
 *****************************************************************
 ******  option summary
 ******
 runlvl  = 3         bypass  = 2         
  Opening plot unit= 79
 file=d:\project\hsipce\hw2-analog\hspice.pa0                                  

1****** HSPICE -- E-2010.12 32-BIT (Nov 20 2010) winnt ******                   
 ******  
 ***hw2-analog***

  ******  operating point information tnom=  25.000 temp=  25.000 *****
 ***** operating point status is all       simulation time is     0.     
    node    =voltage      node    =voltage      node    =voltage

 +0:n1      =   0.      0:n3      =   0.      0:n4      =   0.     
 +0:n5      =   0.      0:n6      =   0.      0:n7      =   0.     
 +0:n8      =   0.      0:vb      = 550.0000m 0:vdd     =   0.     
 +0:vh      =   1.2000  0:vinn    = 900.0000m 0:vinp    = 900.0000m
 +0:vl      = 700.0000m 0:vramp   =   0.      0:vref    =   1.0000 
 +1:n0      =   0.      1:n1      =   0.      1:n2      =   0.     
 +1:n3      =   0.      1:n4      =   0.      2:n0      =   0.     
 +2:n1      =   0.      2:n2      =   0.      2:n3      =   0.     
 +2:n4      =   0.      3:n0      =   0.      3:n1      =-9.574e-27
 +3:n2      = 1.838e-24 3:n3      =-1.065e-27 3:n4      = 1.838e-24
 +4:n1      =   0.      5:n1      =   0.     


 ****  voltage sources

 subckt                                                                    
 element  0:vdd      0:vh       0:vl       0:vref     0:vinp     0:vinn    
  volts      0.         1.2000   700.0000m    1.0000   900.0000m  900.0000m
  current    0.         0.         0.         0.      -900.0000n -900.0000n
  power      0.         0.         0.         0.       810.0000n  810.0000n

 subckt             
 element  0:vb      
  volts    550.0000m
  current    0.     
  power      0.     

     total voltage source power dissipation=    1.6200u       watts



 **** resistors

 subckt              x1         x2         x3        
 element  0:rt       1:rc       2:rc       3:rc      
  r value    1.0000k    3.7000k    3.7000k    3.7000k
  v drop     0.         0.         0.         0.     
  current    0.         0.         0.         0.     
  power      0.         0.         0.         0.     



 **** mosfets


 subckt                                               x1         x1        
 element  0:mp1      0:mp2      0:mn1      0:mn2      1:mp1      1:mp2     
 model    0:p_18.1   0:p_18.1   0:n_18.1   0:n_18.1   0:p_18.1   0:p_18.1  
 region       Cutoff     Cutoff     Cutoff     Cutoff     Cutoff     Cutoff
  id         0.         0.         0.         0.         0.         0.     
  ibs        0.         0.         0.         0.         0.         0.     
  ibd        0.         0.         0.         0.         0.         0.     
  vgs        0.         0.         0.         0.         0.         1.0000 
  vds        0.         0.         0.         0.         0.         0.     
  vbs        0.         0.         0.         0.         0.         0.     
  vth     -524.9910m -524.9910m  521.0897m  521.0897m -510.6614m -510.6614m
  vdsat    -56.7321m  -56.7321m   53.7579m   53.7579m  -45.7617m  -45.7616m
  vod      524.9910m  524.9910m -521.0897m -521.0897m  510.6614m    1.5107 
  beta       6.4709m    6.4709m    2.0083m    2.0083m   10.8968m   10.8968m
  gam eff  557.0847m  557.0847m  507.4459m  507.4459m  557.0847m  557.0847m
  gm         0.         0.         0.         0.         0.         0.     
  gds        1.1119n    1.1119n   79.7755p   79.7755p    1.2412n  1.839e-21
  gmb        0.         0.         0.         0.         0.         0.     
  cdtot     13.6960f   13.6960f    1.6973f    1.6973f   67.2178f   67.2176f
  cgtot     11.6566f   11.6566f    1.1392f    1.1392f   69.7416f  135.8519f
  cstot     13.6960f   13.6960f    1.6973f    1.6973f   67.2178f   67.2176f
  cbtot     24.7004f   24.7004f    2.9805f    2.9805f  133.5837f  199.6917f
  cgs        3.5870f    3.5871f  388.3112a  388.3001a   17.6491f   17.6514f
  cgd        3.5871f    3.5870f  388.3001a  388.3112a   17.6481f   17.6480f



 subckt   x1         x1         x1         x1         x1         x1        
 element  1:mp3      1:mp4      1:mp5      1:mn1      1:mn2      1:mn3     
 model    0:p_18.1   0:p_18.1   0:p_18.1   0:n_18.1   0:n_18.1   0:n_18.1  
 region       Cutoff     Cutoff     Cutoff     Cutoff     Cutoff     Cutoff
  id         0.         0.         0.         0.         0.         0.     
  ibs        0.         0.         0.         0.         0.         0.     
  ibd        0.         0.         0.         0.         0.         0.     
  vgs        0.         0.         0.         0.         0.         0.     
  vds        0.         0.         0.         0.         0.         0.     
  vbs        0.         0.         0.         0.         0.         0.     
  vth     -521.7600m -511.5477m -538.1311m  490.0095m  490.0095m  454.1003m
  vdsat    -56.7210m  -45.7890m  -56.8070m   45.2961m   45.2961m   42.4863m
  vod      521.7600m  511.5477m  538.1311m -490.0095m -490.0095m -454.1003m
  beta      16.2912m    9.2749m    1.8282m    7.3911m    7.3911m    7.7574m
  gam eff  557.0847m  557.0847m  557.0847m  507.4459m  507.4459m  507.4459m
  gm         0.         0.         0.         0.         0.         0.     
  gds        3.0260n    1.0351n  236.9883p   82.4485p   82.4485p  184.5723p
  gmb        0.         0.         0.         0.         0.         0.     
  cdtot     34.1495f   57.4869f    4.2355f   13.0206f   13.0206f   19.2522f
  cgtot     29.1236f   59.5484f    3.5059f   11.4302f   11.4302f   20.2075f
  cstot     34.1495f   57.4870f    4.2355f   13.0206f   13.0206f   19.2522f
  cbtot     61.5520f  114.2595f    7.6724f   25.0458f   25.0458f   40.0733f
  cgs        8.9678f   15.0654f    1.0761f    3.1064f    3.1064f    4.6599f
  cgd        8.9675f   15.0663f    1.0761f    3.1066f    3.1066f    4.6596f



 subckt   x1         x2         x2         x2         x2         x2        
 element  1:mn4      2:mp1      2:mp2      2:mp3      2:mp4      2:mp5     
 model    0:n_18.1   0:p_18.1   0:p_18.1   0:p_18.1   0:p_18.1   0:p_18.1  
 region       Linear     Cutoff     Cutoff     Cutoff     Cutoff     Cutoff
  id         0.         0.         0.         0.         0.         0.     
  ibs        0.         0.         0.         0.         0.         0.     
  ibd        0.         0.         0.         0.         0.         0.     
  vgs      550.0000m    1.2000     0.         0.         0.         0.     
  vds        0.         0.         0.         0.         0.         0.     
  vbs        0.         0.         0.         0.         0.         0.     
  vth      526.6211m -510.6614m -510.6614m -521.7600m -511.5477m -538.1311m
  vdsat     97.0274m  -45.7616m  -45.7617m  -56.7210m  -45.7890m  -56.8070m
  vod       23.3789m    1.7107   510.6614m  521.7600m  511.5477m  538.1311m
  beta       5.9903m   10.8968m   10.8968m   16.2912m    9.2749m    1.8282m
  gam eff  507.4459m  557.0847m  557.0847m  557.0847m  557.0847m  557.0847m
  gm         0.         0.         0.         0.         0.         0.     
  gds      281.9369u  7.915e-24    1.2412n    3.0260n    1.0351n  236.9883p
  gmb        0.         0.         0.         0.         0.         0.     
  cdtot      7.3505f   67.2176f   67.2178f   34.1495f   57.4870f    4.2355f
  cgtot      5.4113f  149.0177f   69.7416f   29.1236f   59.5484f    3.5059f
  cstot      7.3255f   67.2176f   67.2178f   34.1495f   57.4869f    4.2355f
  cbtot      8.2165f  212.8571f  133.5837f   61.5520f  114.2595f    7.6724f
  cgs        2.7054f   17.6480f   17.6481f    8.9675f   15.0663f    1.0761f
  cgd        2.2050f   17.6518f   17.6491f    8.9678f   15.0654f    1.0761f



 subckt   x2         x2         x2         x2         x3         x3        
 element  2:mn1      2:mn2      2:mn3      2:mn4      3:mp1      3:mp2     
 model    0:n_18.1   0:n_18.1   0:n_18.1   0:n_18.1   0:p_18.1   0:p_18.1  
 region       Cutoff     Cutoff     Cutoff     Linear     Cutoff     Cutoff
  id         0.         0.         0.         0.         0.         0.     
  ibs        0.         0.         0.         0.         0.         0.     
  ibd        0.         0.         0.         0.         0.         0.     
  vgs        0.         0.         0.       550.0000m  1.065e-27  700.0000m
  vds        0.         0.         0.         0.      -8.508e-27  1.839e-24
  vbs        0.         0.         0.         0.       1.065e-27  1.065e-27
  vth      490.0095m  490.0095m  454.1003m  526.6211m -510.6614m -510.6614m
  vdsat     45.2961m   45.2961m   42.4863m   97.0274m  -45.7617m  -45.7616m
  vod     -490.0095m -490.0095m -454.1003m   23.3789m  510.6614m    1.2107 
  beta       7.3911m    7.3911m    7.7574m    5.9903m   10.8968m   10.8968m
  gam eff  507.4459m  507.4459m  507.4459m  507.4459m  557.0847m  557.0847m
  gm         0.         0.         0.         0.         0.         0.     
  gds       82.4485p   82.4485p  184.5723p  281.9369u    1.2412n    6.5108a
  gmb        0.         0.         0.         0.         0.         0.     
  cdtot     13.0206f   13.0206f   19.2522f    7.3505f   67.2178f   67.2176f
  cgtot     11.4302f   11.4302f   20.2075f    5.4113f   69.7416f   99.0954f
  cstot     13.0206f   13.0206f   19.2522f    7.3255f   67.2178f   67.2176f
  cbtot     25.0458f   25.0458f   40.0733f    8.2165f  133.5837f  162.9364f
  cgs        3.1066f    3.1066f    4.6596f    2.7054f   17.6491f   17.6480f
  cgd        3.1064f    3.1064f    4.6599f    2.2050f   17.6481f   17.6502f



 subckt   x3         x3         x3         x3         x3         x3        
 element  3:mp3      3:mp4      3:mp5      3:mn1      3:mn2      3:mn3     
 model    0:p_18.1   0:p_18.1   0:p_18.1   0:n_18.1   0:n_18.1   0:n_18.1  
 region       Cutoff     Cutoff     Cutoff     Cutoff     Cutoff     Cutoff
  id         0.         0.         0.         0.         0.         0.     
  ibs        0.         0.         0.         0.         0.         0.     
  ibd        0.         0.         0.         0.         0.         0.     
  vgs        0.         0.         0.      -9.574e-27 -9.574e-27  1.838e-24
  vds     -1.065e-27    0.         0.      -9.574e-27  1.838e-24    0.     
  vbs        0.         0.         0.         0.         0.         0.     
  vth     -521.7600m -511.5477m -538.1311m  490.0095m  490.0095m  454.1003m
  vdsat    -56.7210m  -45.7890m  -56.8070m   45.2961m   45.2961m   42.4863m
  vod      521.7600m  511.5477m  538.1311m -490.0095m -490.0095m -454.1003m
  beta      16.2912m    9.2749m    1.8282m    7.3911m    7.3911m    7.7574m
  gam eff  557.0847m  557.0847m  557.0847m  507.4459m  507.4459m  507.4459m
  gm         0.         0.         0.         0.         0.         0.     
  gds        3.0260n    1.0351n  236.9883p   82.4485p   82.4485p  184.5723p
  gmb        0.         0.         0.         0.         0.         0.     
  cdtot     34.1495f   57.4870f    4.2355f   13.0206f   13.0206f   19.2522f
  cgtot     29.1236f   59.5484f    3.5059f   11.4302f   11.4302f   20.2075f
  cstot     34.1495f   57.4869f    4.2355f   13.0206f   13.0206f   19.2522f
  cbtot     61.5520f  114.2595f    7.6724f   25.0458f   25.0458f   40.0733f
  cgs        8.9678f   15.0663f    1.0761f    3.1064f    3.1066f    4.6599f
  cgd        8.9675f   15.0654f    1.0761f    3.1066f    3.1064f    4.6596f



 subckt   x3         x4         x4         x4         x4         x5        
 element  3:mn4      4:mp1      4:mp2      4:mn3      4:mn4      5:mp1     
 model    0:n_18.1   0:p_18.1   0:p_18.1   0:n_18.1   0:n_18.1   0:p_18.1  
 region       Linear     Cutoff     Cutoff     Cutoff     Cutoff     Cutoff
  id         0.         0.         0.         0.         0.         0.     
  ibs        0.         0.         0.         0.         0.         0.     
  ibd        0.         0.         0.         0.         0.         0.     
  vgs      550.0000m    0.         0.         0.         0.         0.     
  vds        0.         0.         0.         0.         0.         0.     
  vbs        0.         0.         0.         0.         0.         0.     
  vth      526.6211m -538.1311m -538.1311m  521.0897m  521.0897m -538.1311m
  vdsat     97.0274m  -56.8070m  -56.8070m   53.7579m   53.7579m  -56.8070m
  vod       23.3789m  538.1311m  538.1311m -521.0897m -521.0897m  538.1311m
  beta       5.9903m    1.8282m    1.8282m    2.0083m    2.0083m    1.8282m
  gam eff  507.4459m  557.0847m  557.0847m  507.4459m  507.4459m  557.0847m
  gm         0.         0.         0.         0.         0.         0.     
  gds      281.9369u  236.9883p  236.9883p   79.7755p   79.7755p  236.9883p
  gmb        0.         0.         0.         0.         0.         0.     
  cdtot      7.3505f    4.2355f    4.2355f    1.6973f    1.6973f    4.2355f
  cgtot      5.4113f    3.5059f    3.5059f    1.1392f    1.1392f    3.5059f
  cstot      7.3255f    4.2355f    4.2355f    1.6973f    1.6973f    4.2355f
  cbtot      8.2165f    7.6724f    7.6724f    2.9805f    2.9805f    7.6724f
  cgs        2.7054f    1.0761f    1.0761f  388.3112a  388.3112a    1.0761f
  cgd        2.2050f    1.0761f    1.0761f  388.3001a  388.3001a    1.0761f



 subckt   x5         x5         x5        
 element  5:mp2      5:mn3      5:mn4     
 model    0:p_18.1   0:n_18.1   0:n_18.1  
 region       Cutoff     Cutoff     Cutoff
  id         0.         0.         0.     
  ibs        0.         0.         0.     
  ibd        0.         0.         0.     
  vgs        0.         0.         0.     
  vds        0.         0.         0.     
  vbs        0.         0.         0.     
  vth     -538.1311m  521.0897m  521.0897m
  vdsat    -56.8070m   53.7579m   53.7579m
  vod      538.1311m -521.0897m -521.0897m
  beta       1.8282m    2.0083m    2.0083m
  gam eff  557.0847m  507.4459m  507.4459m
  gm         0.         0.         0.     
  gds      236.9883p   79.7755p   79.7755p
  gmb        0.         0.         0.     
  cdtot      4.2355f    1.6973f    1.6973f
  cgtot      3.5059f    1.1392f    1.1392f
  cstot      4.2355f    1.6973f    1.6973f
  cbtot      7.6724f    2.9805f    2.9805f
  cgs        1.0761f  388.3001a  388.3001a
  cgd        1.0761f  388.3112a  388.3112a



  **warning** PSF format is not supported on this platform.

          ***** job concluded
1****** HSPICE -- E-2010.12 32-BIT (Nov 20 2010) winnt ******                   
 ******  
 ***hw2-analog***

  ******  job statistics summary tnom=  25.000 temp=  25.000 *****

  ******  HSPICE Threads Information  ******

  Command Line Threads Count                  :     1
  Available CPU Count                         :    20
  Actual Model Evaluation(Load) Threads Count :     1
  Actual Solver Threads Count                 :     1


  ******  Circuit Statistics  ******
  # nodes       =     111 # elements   =      53
  # resistors   =       6 # capacitors =       1 # inductors   =       0
  # mutual_inds =       0 # vccs       =       0 # vcvs        =       0
  # cccs        =       0 # ccvs       =       0 # volt_srcs   =       7
  # curr_srcs   =       0 # diodes     =       0 # bjts        =       0
  # jfets       =       0 # mosfets    =      39 # U elements  =       0
  # T elements  =       0 # W elements =       0 # B elements  =       0
  # S elements  =       0 # P elements =       0 # va device   =       0
  # vector_srcs =       0


  ******  Runtime Statistics (seconds)  ******

  analysis           time    # points   tot. iter  conv.iter
  op point           0.09           1          43
  ac analysis        0.05          91          91
  transient          0.96          51       12789        3338 rev=       345
  readin             0.05
  errchk             0.02
  setup              0.06
  output             0.00


           total memory used          546  kbytes
           total cpu time            1.32 seconds
           total elapsed time        1.40 seconds
           job started at     16:28:59 07/14/2022
           job ended   at     16:29:01 07/14/2022


  lic: Release hspice token(s) 
